1749
Final configuration
Ar 46.2693 4.97793 0.0
Ar 44.7763 3.08726 0.0
Ar 1.78617 1.42616 0.0
Ar 0.459763 4.80045 0.0
Ar 4.64857 45.2587 0.0
Ar 5.41422 1.31923 0.0
Ar 4.63024 7.92298 0.0
Ar 5.58436 7.04882 0.0
Ar 7.86958 42.3746 0.0
Ar 9.8027 3.54887 0.0
Ar 8.96546 41.977 0.0
Ar 19.5212 45.357 0.0
Ar 14.9536 45.938 0.0
Ar 18.7769 0.810711 0.0
Ar 22.7144 40.7648 0.0
Ar 30.8924 47.212 0.0
Ar 21.8931 45.5107 0.0
Ar 16.253 48.4372 0.0
Ar 13.7771 49.7984 0.0
Ar 18.8409 40.3743 0.0
Ar 17.3485 1.23968 0.0
Ar 24.5836 49.7728 0.0
Ar 27.5295 48.7389 0.0
Ar 29.5146 39.94 0.0
Ar 34.0996 2.42254 0.0
Ar 23.8983 3.04703 0.0
Ar 37.0946 6.52203 0.0
Ar 31.743 40.9757 0.0
Ar 41.5709 48.6822 0.0
Ar 35.8107 49.5163 0.0
Ar 38.5814 4.95008 0.0
Ar 43.5944 46.6094 0.0
Ar 48.1798 1.38817 0.0
Ar 46.9062 42.7549 0.0
Ar 46.2771 49.6922 0.0
Ar 39.1902 9.05092 0.0
Ar 37.0235 3.33137 0.0
Ar 46.3018 46.5415 0.0
Ar 41.5145 5.02252 0.0
Ar 45.5894 3.78994 0.0
Ar 49.595 47.4242 0.0
Ar 2.75463 41.8996 0.0
Ar 4.14511 3.26358 0.0
Ar 7.74309 3.1961 0.0
Ar 5.68786 11.3721 0.0
Ar 46.649 3.01406 0.0
Ar 7.44554 47.9341 0.0
Ar 7.94413 48.8436 0.0
Ar 47.5373 5.07599 0.0
Ar 10.1902 11.6589 0.0
Ar 16.7877 47.3715 0.0
Ar 10.8053 5.68702 0.0
Ar 9.51985 7.40835 0.0
Ar 15.7861 49.5538 0.0
Ar 17.2385 37.8988 0.0
Ar 16.5043 8.32539 0.0
Ar 20.6243 43.4411 0.0
Ar 9.52114 43.8787 0.0
Ar 11.5469 3.64452 0.0
Ar 26.5574 48.2642 0.0
Ar 14.7337 49.1625 0.0
Ar 21.6004 4.82869 0.0
Ar 19.5227 0.164869 0.0
Ar 35.923 3.21832 0.0
Ar 27.0963 0.77936 0.0
Ar 18.8703 47.9978 0.0
Ar 39.6719 4.18891 0.0
Ar 18.5112 4.70402 0.0
Ar 37.4417 44.8485 0.0
Ar 22.4659 3.51461 0.0
Ar 22.1793 1.5421 0.0
Ar 36.3757 4.18658 0.0
Ar 28.2835 43.3934 0.0
Ar 32.5938 11.1367 0.0
Ar 35.7328 0.704674 0.0
Ar 37.7312 47.4433 0.0
Ar 39.6088 1.58448 0.0
Ar 37.3737 7.59156 0.0
Ar 40.7515 5.88283 0.0
Ar 43.5487 48.195 0.0
Ar 46.3426 13.0449 0.0
Ar 42.9995 2.83801 0.0
Ar 41.0719 47.7111 0.0
Ar 10.7495 49.2619 0.0
Ar 46.1323 8.62256 0.0
Ar 47.6319 49.2567 0.0
Ar 4.88263 6.28788 0.0
Ar 7.1382 4.26205 0.0
Ar 3.13674 49.0519 0.0
Ar 0.412784 12.0431 0.0
Ar 18.2841 45.1056 0.0
Ar 7.02593 7.17208 0.0
Ar 14.8258 47.857 0.0
Ar 11.0302 45.6227 0.0
Ar 6.67542 44.76 0.0
Ar 14.214 2.24223 0.0
Ar 14.6658 8.24887 0.0
Ar 14.7914 44.5024 0.0
Ar 23.2116 46.5507 0.0
Ar 15.5604 2.91779 0.0
Ar 16.639 3.04053 0.0
Ar 22.1923 0.45057 0.0
Ar 27.8486 8.01779 0.0
Ar 30.3911 48.2821 0.0
Ar 35.8835 6.34233 0.0
Ar 22.6201 4.56927 0.0
Ar 28.5098 2.67872 0.0
Ar 35.1865 2.45008 0.0
Ar 27.6182 47.3923 0.0
Ar 34.5946 42.9804 0.0
Ar 31.1313 7.39467 0.0
Ar 33.885 0.199833 0.0
Ar 30.2426 1.55699 0.0
Ar 35.435 47.337 0.0
Ar 43.4971 49.4028 0.0
Ar 31.2119 1.82204 0.0
Ar 34.979 1.3825 0.0
Ar 41.7856 11.4933 0.0
Ar 42.0762 2.53768 0.0
Ar 39.6881 8.12046 0.0
Ar 42.6789 1.44356 0.0
Ar 48.1547 0.303674 0.0
Ar 45.9481 6.28221 0.0
Ar 47.0123 1.8729 0.0
Ar 48.3753 2.40617 0.0
Ar 0.799029 48.9038 0.0
Ar 37.7385 13.4725 0.0
Ar 4.16265 12.4477 0.0
Ar 11.9737 11.4562 0.0
Ar 0.117705 19.206 0.0
Ar 47.3326 13.5082 0.0
Ar 48.365 6.12639 0.0
Ar 2.2881 46.9089 0.0
Ar 12.5541 4.29305 0.0
Ar 6.38915 48.259 0.0
Ar 15.4354 5.4269 0.0
Ar 13.8906 43.1522 0.0
Ar 13.4614 6.4367 0.0
Ar 11.6403 6.22013 0.0
Ar 22.9549 2.41217 0.0
Ar 4.95502 3.95048 0.0
Ar 25.4618 3.92758 0.0
Ar 17.5629 8.9708 0.0
Ar 24.2427 2.14082 0.0
Ar 19.6337 4.53914 0.0
Ar 9.50543 2.15088 0.0
Ar 25.6617 49.8069 0.0
Ar 28.1689 3.80246 0.0
Ar 34.2545 6.40041 0.0
Ar 32.6043 48.668 0.0
Ar 28.9692 1.81103 0.0
Ar 37.6754 48.5246 0.0
Ar 36.3464 46.5794 0.0
Ar 28.8175 12.2447 0.0
Ar 36.4855 8.58256 0.0
Ar 31.8203 11.953 0.0
Ar 41.8622 7.54858 0.0
Ar 39.8901 49.3943 0.0
Ar 37.8615 49.9489 0.0
Ar 37.5497 2.15015 0.0
Ar 38.5095 49.1335 0.0
Ar 41.8797 8.76354 0.0
Ar 44.1922 13.6772 0.0
Ar 43.5812 3.81658 0.0
Ar 42.7863 8.276 0.0
Ar 46.6649 9.5761 0.0
Ar 48.2004 4.2198 0.0
Ar 45.6476 2.53378 0.0
Ar 47.5315 11.3854 0.0
Ar 3.08212 12.5502 0.0
Ar 49.571 0.802434 0.0
Ar 1.32009 2.8119 0.0
Ar 42.3685 4.56674 0.0
Ar 4.03702 6.92312 0.0
Ar 14.9983 1.68063 0.0
Ar 10.5865 1.79259 0.0
Ar 7.31103 10.0978 0.0
Ar 9.67883 47.2565 0.0
Ar 17.0504 6.406 0.0
Ar 8.86671 8.25766 0.0
Ar 15.7211 46.9738 0.0
Ar 11.5592 1.22098 0.0
Ar 13.8764 1.05324 0.0
Ar 12.7588 1.50994 0.0
Ar 10.6623 4.4768 0.0
Ar 25.8392 4.9494 0.0
Ar 23.8147 4.09468 0.0
Ar 19.9545 8.98157 0.0
Ar 31.8539 6.02023 0.0
Ar 27.9606 10.27 0.0
Ar 30.7928 6.16531 0.0
Ar 20.1592 2.95131 0.0
Ar 29.7222 6.0074 0.0
Ar 31.4938 8.98956 0.0
Ar 27.6937 11.8286 0.0
Ar 29.6928 12.8868 0.0
Ar 38.4871 8.24683 0.0
Ar 34.5763 3.41234 0.0
Ar 34.0052 1.30283 0.0
Ar 28.7412 11.1266 0.0
Ar 37.9027 4.0261 0.0
Ar 32.6402 14.2514 0.0
Ar 45.5753 44.3254 0.0
Ar 40.1662 6.99652 0.0
Ar 0.5762 5.84835 0.0
Ar 44.5755 48.9275 0.0
Ar 49.8075 10.7806 0.0
Ar 48.6 5.10614 0.0
Ar 47.0685 0.79925 0.0
Ar 49.8222 48.4987 0.0
Ar 8.9509 10.9812 0.0
Ar 46.8382 4.05873 0.0
Ar 48.2365 7.38353 0.0
Ar 9.80144 6.2961 0.0
Ar 46.9896 6.68272 0.0
Ar 9.33475 1.09061 0.0
Ar 49.5861 5.45181 0.0
Ar 11.801 2.60704 0.0
Ar 17.0177 13.6336 0.0
Ar 2.34876 9.19739 0.0
Ar 18.3346 1.798 0.0
Ar 13.4535 3.6709 0.0
Ar 23.1409 1.14069 0.0
Ar 6.62954 12.2072 0.0
Ar 12.4228 5.50135 0.0
Ar 11.6285 4.92534 0.0
Ar 26.841 5.9217 0.0
Ar 21.3723 3.28357 0.0
Ar 29.5697 3.59721 0.0
Ar 17.9188 10.224 0.0
Ar 30.3769 5.0027 0.0
Ar 27.4671 4.701 0.0
Ar 31.5498 3.51167 0.0
Ar 32.8913 49.8385 0.0
Ar 23.8373 11.5593 0.0
Ar 30.5471 4.01292 0.0
Ar 28.426 15.942 0.0
Ar 34.6267 4.54998 0.0
Ar 37.7071 9.04996 0.0
Ar 32.7237 3.13757 0.0
Ar 25.8522 15.6773 0.0
Ar 48.5213 16.6168 0.0
Ar 30.9014 41.7539 0.0
Ar 35.0628 5.652 0.0
Ar 46.2201 15.1642 0.0
Ar 44.7973 45.0325 0.0
Ar 41.1911 1.83785 0.0
Ar 42.6281 12.6947 0.0
Ar 36.1574 14.9463 0.0
Ar 42.7861 6.90002 0.0
Ar 48.8943 3.42385 0.0
Ar 0.518511 7.05473 0.0
Ar 43.6548 14.5578 0.0
Ar 0.652027 17.7544 0.0
Ar 8.58599 9.88366 0.0
Ar 6.43674 6.27773 0.0
Ar 43.9615 10.1532 0.0
Ar 12.5831 0.436573 0.0
Ar 8.93098 2.94474 0.0
Ar 12.6257 15.9632 0.0
Ar 14.6731 10.7409 0.0
Ar 12.8402 2.56205 0.0
Ar 7.71858 6.35457 0.0
Ar 18.3121 16.0666 0.0
Ar 11.6474 8.42278 0.0
Ar 20.9344 9.18323 0.0
Ar 23.0549 37.5765 0.0
Ar 18.9951 7.30199 0.0
Ar 26.8662 7.51812 0.0
Ar 28.312 19.1974 0.0
Ar 8.53886 6.99568 0.0
Ar 15.5293 4.16182 0.0
Ar 24.9472 14.8603 0.0
Ar 30.0554 7.16507 0.0
Ar 31.5947 49.738 0.0
Ar 25.8598 8.17609 0.0
Ar 24.8358 8.52429 0.0
Ar 28.4678 48.0734 0.0
Ar 34.6026 49.1173 0.0
Ar 26.8586 11.1603 0.0
Ar 49.4184 46.3983 0.0
Ar 27.0531 9.59843 0.0
Ar 38.6173 3.35391 0.0
Ar 45.3511 13.3462 0.0
Ar 41.3605 49.7636 0.0
Ar 38.9594 7.16005 0.0
Ar 41.7991 0.973585 0.0
Ar 38.0192 10.1455 0.0
Ar 1.3261 7.65957 0.0
Ar 43.0304 13.6654 0.0
Ar 40.8425 2.92687 0.0
Ar 48.7556 11.6845 0.0
Ar 42.7785 5.70508 0.0
Ar 0.391042 13.1538 0.0
Ar 42.0318 25.9375 0.0
Ar 0.773924 0.288029 0.0
Ar 5.20117 12.305 0.0
Ar 4.35445 9.37807 0.0
Ar 8.28212 47.0681 0.0
Ar 47.6304 3.34613 0.0
Ar 11.79 49.3488 0.0
Ar 4.81771 5.08497 0.0
Ar 12.7081 7.193 0.0
Ar 6.18127 3.76938 0.0
Ar 11.1334 9.26196 0.0
Ar 3.75559 5.57942 0.0
Ar 19.9458 7.71888 0.0
Ar 13.5345 11.8908 0.0
Ar 6.45584 49.236 0.0
Ar 2.89584 4.70945 0.0
Ar 29.3447 48.7639 0.0
Ar 25.9176 9.31336 0.0
Ar 16.5464 4.12212 0.0
Ar 9.85041 9.86682 0.0
Ar 23.7634 5.24837 0.0
Ar 28.742 18.271 0.0
Ar 21.9895 9.29388 0.0
Ar 32.1863 7.10739 0.0
Ar 34.2807 7.95855 0.0
Ar 26.2666 2.0346 0.0
Ar 30.3047 8.48341 0.0
Ar 26.947 8.5556 0.0
Ar 38.0213 11.866 0.0
Ar 29.1377 8.60203 0.0
Ar 36.2467 7.50761 0.0
Ar 30.9211 9.875 0.0
Ar 40.3077 18.9728 0.0
Ar 40.8705 7.80914 0.0
Ar 43.2004 9.2551 0.0
Ar 49.2492 13.9081 0.0
Ar 38.9326 12.3722 0.0
Ar 28.9358 10.0854 0.0
Ar 46.939 12.1577 0.0
Ar 1.35581 8.801 0.0
Ar 2.56551 5.89837 0.0
Ar 1.90286 18.1057 0.0
Ar 48.529 15.4954 0.0
Ar 44.5049 6.09703 0.0
Ar 4.273 19.442 0.0
Ar 0.370033 3.39848 0.0
Ar 8.51471 44.3419 0.0
Ar 12.3861 48.1117 0.0
Ar 6.01175 10.0193 0.0
Ar 10.91 7.70579 0.0
Ar 49.2277 9.87614 0.0
Ar 19.5133 16.0817 0.0
Ar 14.6403 9.42864 0.0
Ar 5.52908 2.81041 0.0
Ar 21.3515 8.0686 0.0
Ar 8.12033 5.12029 0.0
Ar 19.2491 17.3054 0.0
Ar 9.20888 5.00931 0.0
Ar 29.0007 5.28036 0.0
Ar 22.0464 12.4999 0.0
Ar 24.2386 0.783346 0.0
Ar 14.5067 7.13686 0.0
Ar 20.136 10.0535 0.0
Ar 25.2471 18.9759 0.0
Ar 23.18 21.8855 0.0
Ar 24.9665 7.47407 0.0
Ar 32.8292 8.04429 0.0
Ar 27.1806 15.9529 0.0
Ar 25.1679 1.50433 0.0
Ar 33.0874 9.93189 0.0
Ar 36.4783 20.1178 0.0
Ar 33.1699 13.1348 0.0
Ar 35.7504 13.3367 0.0
Ar 31.3408 17.0052 0.0
Ar 45.4043 12.3191 0.0
Ar 41.5591 17.4542 0.0
Ar 2.53011 10.7788 0.0
Ar 33.6627 14.4391 0.0
Ar 46.6998 10.7071 0.0
Ar 43.679 0.573618 0.0
Ar 46.2143 21.3403 0.0
Ar 5.10353 10.5079 0.0
Ar 40.4777 10.7714 0.0
Ar 49.6699 18.2265 0.0
Ar 0.424775 9.71576 0.0
Ar 45.0973 7.05869 0.0
Ar 2.31512 15.0079 0.0
Ar 1.64392 6.44779 0.0
Ar 49.35 4.41513 0.0
Ar 5.4963 17.5084 0.0
Ar 11.2545 12.2692 0.0
Ar 4.7911 13.2507 0.0
Ar 6.63899 9.19447 0.0
Ar 7.328 13.107 0.0
Ar 29.1579 20.3022 0.0
Ar 21.1824 6.94609 0.0
Ar 15.0096 11.7387 0.0
Ar 3.65399 16.3589 0.0
Ar 7.76576 11.4675 0.0
Ar 16.7717 49.8351 0.0
Ar 20.717 4.13879 0.0
Ar 10.2011 12.9874 0.0
Ar 26.3337 3.15049 0.0
Ar 22.6536 11.6332 0.0
Ar 17.305 5.2879 0.0
Ar 22.2465 14.0667 0.0
Ar 37 11.457 0.0
Ar 22.8132 7.9614 0.0
Ar 28.0704 9.08348 0.0
Ar 33.567 3.70123 0.0
Ar 33.5015 7.10677 0.0
Ar 30.8972 12.7732 0.0
Ar 28.4822 13.287 0.0
Ar 24.9495 9.97413 0.0
Ar 30.2884 17.4851 0.0
Ar 34.1408 9.35709 0.0
Ar 25.8172 20.3003 0.0
Ar 34.7274 22.625 0.0
Ar 45.2598 15.8314 0.0
Ar 40.3944 17.2348 0.0
Ar 40.3857 15.1015 0.0
Ar 48.3766 8.852 0.0
Ar 48.4599 10.7019 0.0
Ar 45.2086 24.6558 0.0
Ar 42.352 10.3589 0.0
Ar 48.9929 19.0624 0.0
Ar 40.6602 12.2338 0.0
Ar 1.90558 48.2081 0.0
Ar 6.44203 17.987 0.0
Ar 1.44922 12.5903 0.0
Ar 3.41521 14.8826 0.0
Ar 1.49637 14.1847 0.0
Ar 16.8652 10.3549 0.0
Ar 6.7885 14.1729 0.0
Ar 12.143 13.7154 0.0
Ar 20.165 11.1653 0.0
Ar 23.5109 19.8249 0.0
Ar 21.3632 14.5587 0.0
Ar 13.6956 8.92384 0.0
Ar 18.8461 8.48308 0.0
Ar 8.81221 6.0591 0.0
Ar 20.3019 6.31489 0.0
Ar 25.1114 2.80053 0.0
Ar 34.7203 24.4873 0.0
Ar 30.7405 25.5128 0.0
Ar 13.7548 14.1628 0.0
Ar 23.3617 23.0081 0.0
Ar 18.7309 10.9997 0.0
Ar 21.3511 10.5281 0.0
Ar 23.6024 12.5689 0.0
Ar 24.0172 9.51449 0.0
Ar 36.0449 10.8249 0.0
Ar 27.2901 17.0711 0.0
Ar 36.8786 9.76739 0.0
Ar 26.3215 19.3816 0.0
Ar 25.8037 10.8405 0.0
Ar 37.2566 5.06691 0.0
Ar 24.6143 12.6037 0.0
Ar 36.3984 16.3381 0.0
Ar 33.6544 18.5246 0.0
Ar 24.1565 14.1763 0.0
Ar 44.5955 23.0558 0.0
Ar 43.8589 21.0681 0.0
Ar 0.383636 14.5194 0.0
Ar 0.834747 10.755 0.0
Ar 1.58925 9.98704 0.0
Ar 44.3985 18.8465 0.0
Ar 44.5227 9.19085 0.0
Ar 2.1145 16.2117 0.0
Ar 45.4924 10.4016 0.0
Ar 47.5466 16.9335 0.0
Ar 4.60727 11.3663 0.0
Ar 8.94386 13.1479 0.0
Ar 16.5954 9.39827 0.0
Ar 49.4869 16.9295 0.0
Ar 10.1048 8.49612 0.0
Ar 49.718 15.6771 0.0
Ar 16.4428 23.9977 0.0
Ar 11.159 0.1859 0.0
Ar 22.9622 6.32141 0.0
Ar 14.991 16.751 0.0
Ar 21.4285 13.2014 0.0
Ar 15.5067 21.2265 0.0
Ar 13.6208 7.77866 0.0
Ar 15.4954 7.59472 0.0
Ar 12.4959 12.4584 0.0
Ar 25.9168 7.03383 0.0
Ar 34.7153 15.0834 0.0
Ar 26.9571 23.6622 0.0
Ar 35.7908 21.6665 0.0
Ar 29.8185 11.7413 0.0
Ar 22.5948 18.3412 0.0
Ar 33.1231 16.6101 0.0
Ar 25.4454 21.4612 0.0
Ar 24.832 11.3819 0.0
Ar 31.3873 18.0117 0.0
Ar 39.7922 13.0248 0.0
Ar 23.565 16.4457 0.0
Ar 27.2937 19.879 0.0
Ar 40.2419 8.99137 0.0
Ar 43.79 28.0909 0.0
Ar 44.9348 14.4563 0.0
Ar 42.5114 19.2365 0.0
Ar 44.0039 16.6674 0.0
Ar 43.3996 18.5519 0.0
Ar 41.7213 24.8 0.0
Ar 43.6338 5.10771 0.0
Ar 41.9054 16.4716 0.0
Ar 45.0391 8.20265 0.0
Ar 4.79994 46.8686 0.0
Ar 3.67432 47.2227 0.0
Ar 3.67235 13.444 0.0
Ar 49.9992 29.4494 0.0
Ar 8.89088 20.4298 0.0
Ar 4.38631 15.4176 0.0
Ar 12.7269 8.1699 0.0
Ar 13.6309 9.99229 0.0
Ar 8.19528 12.3806 0.0
Ar 14.8398 15.1364 0.0
Ar 15.7883 12.733 0.0
Ar 19.1581 19.9942 0.0
Ar 23.566 7.34605 0.0
Ar 14.1145 18.3873 0.0
Ar 7.36253 8.2813 0.0
Ar 20.6268 12.4482 0.0
Ar 17.8872 7.70958 0.0
Ar 23.6745 18.5679 0.0
Ar 21.9104 20.5323 0.0
Ar 15.6022 8.76097 0.0
Ar 31.6539 21.5217 0.0
Ar 23.5477 25.4604 0.0
Ar 27.28 2.48202 0.0
Ar 28.4154 17.1049 0.0
Ar 30.123 19.9686 0.0
Ar 20.0865 15.2731 0.0
Ar 31.0391 19.4592 0.0
Ar 37.7295 24.0812 0.0
Ar 24.6392 4.74371 0.0
Ar 30.001 9.45681 0.0
Ar 22.967 10.2157 0.0
Ar 37.9541 14.7054 0.0
Ar 46.0619 14.1598 0.0
Ar 44.3443 11.2321 0.0
Ar 39.7217 27.3672 0.0
Ar 47.7919 22.5979 0.0
Ar 43.4189 19.808 0.0
Ar 45.1221 17.2266 0.0
Ar 49.205 8.22655 0.0
Ar 41.6692 15.4767 0.0
Ar 48.1371 14.0821 0.0
Ar 45.2184 20.866 0.0
Ar 3.46676 7.87867 0.0
Ar 0.399476 8.23989 0.0
Ar 48.681 17.9755 0.0
Ar 9.21441 12.0097 0.0
Ar 5.54275 18.7165 0.0
Ar 11.1962 13.3913 0.0
Ar 5.45077 14.2234 0.0
Ar 11.2615 15.7778 0.0
Ar 9.16832 16.8645 0.0
Ar 18.8244 15.1123 0.0
Ar 18.1218 13.3121 0.0
Ar 17.3349 11.2603 0.0
Ar 13.4174 13.0658 0.0
Ar 13.8398 22.2055 0.0
Ar 20.6855 16.367 0.0
Ar 12.8876 10.6162 0.0
Ar 27.5826 6.79826 0.0
Ar 20.4754 13.5264 0.0
Ar 19.5768 5.54525 0.0
Ar 23.2219 20.8059 0.0
Ar 29.1335 23.4442 0.0
Ar 23.9156 15.4135 0.0
Ar 26.5426 12.2975 0.0
Ar 30.1727 21.9853 0.0
Ar 28.844 22.4723 0.0
Ar 37.7567 18.8689 0.0
Ar 33.9985 21.7854 0.0
Ar 35.2721 18.3195 0.0
Ar 36.5228 24.6662 0.0
Ar 29.8332 18.6216 0.0
Ar 36.8359 14.0725 0.0
Ar 35.1026 8.68067 0.0
Ar 39.8062 11.5986 0.0
Ar 39.7676 10.0455 0.0
Ar 45.7162 22.5851 0.0
Ar 38.5698 18.2564 0.0
Ar 40.7598 13.6098 0.0
Ar 32.8199 15.56 0.0
Ar 47.6959 25.1616 0.0
Ar 40.7006 26.0558 0.0
Ar 49.5714 6.61085 0.0
Ar 44.5417 4.24095 0.0
Ar 47.0969 14.6972 0.0
Ar 6.37847 16.8104 0.0
Ar 1.53898 5.42352 0.0
Ar 4.33395 17.4607 0.0
Ar 10.0015 15.1297 0.0
Ar 7.94641 15.1613 0.0
Ar 7.68627 23.3362 0.0
Ar 5.07979 16.4052 0.0
Ar 18.1422 14.2891 0.0
Ar 6.06736 13.1248 0.0
Ar 16.5995 11.9186 0.0
Ar 17.5984 16.8098 0.0
Ar 26.585 14.1635 0.0
Ar 23.0845 14.7581 0.0
Ar 14.461 12.5826 0.0
Ar 9.14129 14.6742 0.0
Ar 16.2334 15.923 0.0
Ar 15.7959 10.069 0.0
Ar 25.0983 6.25434 0.0
Ar 21.4902 17.2731 0.0
Ar 26.0907 24.7832 0.0
Ar 36.495 18.5332 0.0
Ar 23.9492 10.5318 0.0
Ar 21.485 11.5874 0.0
Ar 34.8455 20.4902 0.0
Ar 30.739 21.1003 0.0
Ar 29.0637 15.1914 0.0
Ar 39.4972 20.9274 0.0
Ar 38.9271 13.8922 0.0
Ar 29.3478 14.0494 0.0
Ar 31.0459 14.0161 0.0
Ar 35.1871 11.6526 0.0
Ar 32.4773 18.4325 0.0
Ar 37.6768 27.6653 0.0
Ar 33.9661 12.356 0.0
Ar 43.7128 12.5745 0.0
Ar 47.2873 26.1362 0.0
Ar 4.5256 24.2325 0.0
Ar 43.9454 15.5886 0.0
Ar 46.2915 24.8758 0.0
Ar 1.08871 18.8685 0.0
Ar 47.2219 7.74423 0.0
Ar 2.44065 8.0981 0.0
Ar 6.58628 10.8753 0.0
Ar 5.09954 23.1383 0.0
Ar 3.79872 18.5003 0.0
Ar 2.71881 14.1064 0.0
Ar 19.0084 9.6206 0.0
Ar 3.4404 11.6504 0.0
Ar 13.2752 20.6648 0.0
Ar 19.3262 12.5096 0.0
Ar 4.22763 14.3081 0.0
Ar 5.9223 15.8281 0.0
Ar 14.8363 14.045 0.0
Ar 13.7762 15.352 0.0
Ar 12.5832 18.208 0.0
Ar 9.25793 22.7817 0.0
Ar 18.2361 12.0527 0.0
Ar 22.2845 22.8148 0.0
Ar 21.7277 6.05178 0.0
Ar 22.5263 25.0747 0.0
Ar 24.9612 16.2892 0.0
Ar 31.1319 22.5523 0.0
Ar 28.0094 20.7869 0.0
Ar 24.8317 23.4328 0.0
Ar 36.9337 22.2644 0.0
Ar 36.7218 23.6346 0.0
Ar 34.7683 14.0649 0.0
Ar 26.0251 25.8143 0.0
Ar 34.3686 29.0364 0.0
Ar 34.6453 32.9939 0.0
Ar 35.0792 25.5705 0.0
Ar 34.6595 10.5701 0.0
Ar 44.1345 17.7354 0.0
Ar 27.1809 13.1799 0.0
Ar 42.4617 14.9043 0.0
Ar 38.5383 17.1924 0.0
Ar 43.0891 26.1641 0.0
Ar 44.3726 26.9997 0.0
Ar 48.4781 26.4354 0.0
Ar 2.828 17.0494 0.0
Ar 0.596893 23.8359 0.0
Ar 39.5767 18.1154 0.0
Ar 45.0649 25.7002 0.0
Ar 44.5014 19.9382 0.0
Ar 49.3729 21.2295 0.0
Ar 1.0731 15.464 0.0
Ar 45.4045 19.3947 0.0
Ar 46.5077 19.3521 0.0
Ar 7.87699 14.1358 0.0
Ar 5.13492 21.3072 0.0
Ar 7.3361 17.321 0.0
Ar 48.801 22.2573 0.0
Ar 0.900131 20.1326 0.0
Ar 10.8496 16.7932 0.0
Ar 8.30798 17.8859 0.0
Ar 17.6508 15.2458 0.0
Ar 22.7563 32.9378 0.0
Ar 47.3795 18.1341 0.0
Ar 22.4965 15.9424 0.0
Ar 26.2591 16.7725 0.0
Ar 28.1266 23.2589 0.0
Ar 28.0241 5.70077 0.0
Ar 32.633 24.8016 0.0
Ar 32.2397 19.5059 0.0
Ar 32.7782 20.9376 0.0
Ar 27.3033 22.5365 0.0
Ar 36.6041 26.9061 0.0
Ar 34.507 31.9179 0.0
Ar 35.4652 19.5789 0.0
Ar 29.3257 21.2966 0.0
Ar 30.8438 15.8135 0.0
Ar 33.7278 25.1583 0.0
Ar 20.1046 23.3555 0.0
Ar 25.5874 12.5139 0.0
Ar 26.4015 18.083 0.0
Ar 36.0793 12.2648 0.0
Ar 6.25606 26.8091 0.0
Ar 45.5091 26.9689 0.0
Ar 1.74835 20.7502 0.0
Ar 42.1574 27.9112 0.0
Ar 40.954 20.4286 0.0
Ar 44.329 21.9987 0.0
Ar 2.59337 29.1922 0.0
Ar 6.67198 15.0971 0.0
Ar 40.818 32.0625 0.0
Ar 0.571568 16.628 0.0
Ar 45.4466 23.6385 0.0
Ar 7.14542 15.9613 0.0
Ar 49.5494 20.0256 0.0
Ar 39.444 16.6442 0.0
Ar 12.4935 9.27113 0.0
Ar 2.96828 19.5113 0.0
Ar 48.1481 21.4627 0.0
Ar 7.59422 18.8546 0.0
Ar 15.8356 11.1633 0.0
Ar 21.5624 18.6699 0.0
Ar 15.8731 20.0677 0.0
Ar 14.2835 23.4887 0.0
Ar 33.4751 26.3668 0.0
Ar 14.484 20.7214 0.0
Ar 29.054 26.5472 0.0
Ar 19.5848 14.2175 0.0
Ar 21.1759 27.6208 0.0
Ar 15.8474 14.0502 0.0
Ar 26.3017 22.1455 0.0
Ar 28.7999 6.44086 0.0
Ar 33.9011 15.9263 0.0
Ar 31.0934 24.3711 0.0
Ar 40.1725 21.8357 0.0
Ar 24.5626 30.3865 0.0
Ar 32.7497 22.1287 0.0
Ar 31.6683 14.9091 0.0
Ar 29.762 16.4601 0.0
Ar 34.3662 23.4767 0.0
Ar 28.3192 14.4487 0.0
Ar 36.5788 17.4128 0.0
Ar 32.0067 13.2977 0.0
Ar 35.3973 9.67472 0.0
Ar 38.4864 15.9194 0.0
Ar 45.6557 18.3629 0.0
Ar 41.4614 19.2025 0.0
Ar 4.85061 20.2082 0.0
Ar 38.4186 26.7739 0.0
Ar 47.0428 28.3433 0.0
Ar 43.785 25.3092 0.0
Ar 47.2853 15.9207 0.0
Ar 1.86852 19.6087 0.0
Ar 49.3409 12.888 0.0
Ar 2.31389 25.0991 0.0
Ar 0.0881035 25.0912 0.0
Ar 3.90243 20.452 0.0
Ar 47.1842 20.4926 0.0
Ar 43.8947 7.3562 0.0
Ar 2.71362 20.4769 0.0
Ar 2.14983 21.9763 0.0
Ar 3.89139 23.264 0.0
Ar 11.53 18.3864 0.0
Ar 11.8314 17.4322 0.0
Ar 20.4436 17.6959 0.0
Ar 16.7364 22.7918 0.0
Ar 12.1018 14.9279 0.0
Ar 30.2462 32.734 0.0
Ar 26.9969 21.074 0.0
Ar 21.5988 21.777 0.0
Ar 28.9978 30.2571 0.0
Ar 23.0336 17.3113 0.0
Ar 23.5418 24.3866 0.0
Ar 24.3163 27.5381 0.0
Ar 22.0888 29.8453 0.0
Ar 36.8674 21.085 0.0
Ar 39.9261 28.5671 0.0
Ar 28.2719 31.225 0.0
Ar 40.8934 38.1665 0.0
Ar 38.8693 24.3465 0.0
Ar 31.3032 26.7158 0.0
Ar 35.2108 15.9734 0.0
Ar 37.167 12.5973 0.0
Ar 23.2505 13.5261 0.0
Ar 33.6186 10.7011 0.0
Ar 38.9878 22.0255 0.0
Ar 43.066 17.2985 0.0
Ar 45.9377 36.3809 0.0
Ar 38.7132 27.9738 0.0
Ar 37.4673 20.0004 0.0
Ar 47.5656 19.33 0.0
Ar 47.1116 24.1582 0.0
Ar 42.0869 23.6027 0.0
Ar 9.01171 15.7168 0.0
Ar 2.9225 26.9924 0.0
Ar 48.4706 23.4453 0.0
Ar 41.5865 14.2401 0.0
Ar 46.7689 27.248 0.0
Ar 42.9439 16.0139 0.0
Ar 46.1512 25.9225 0.0
Ar 9.20523 25.7047 0.0
Ar 10.1377 22.0048 0.0
Ar 12.8895 17.2327 0.0
Ar 21.479 15.728 0.0
Ar 6.78005 24.072 0.0
Ar 6.31726 25.0055 0.0
Ar 8.15251 22.3282 0.0
Ar 16.7031 14.6537 0.0
Ar 18.1284 19.0832 0.0
Ar 17.7326 17.8445 0.0
Ar 15.9008 18.688 0.0
Ar 22.2061 32.0113 0.0
Ar 25.2082 13.5971 0.0
Ar 22.6026 27.8146 0.0
Ar 38.2057 20.8106 0.0
Ar 30.198 23.6875 0.0
Ar 29.6974 28.0529 0.0
Ar 23.1316 28.7563 0.0
Ar 35.2867 17.2305 0.0
Ar 32.8412 31.3229 0.0
Ar 42.0266 38.4152 0.0
Ar 37.4636 26.165 0.0
Ar 32.9256 12.0957 0.0
Ar 39.7034 26.3091 0.0
Ar 32.9425 27.3437 0.0
Ar 38.3063 37.1521 0.0
Ar 32.0238 16.1525 0.0
Ar 41.6049 12.7687 0.0
Ar 38.6912 25.7376 0.0
Ar 37.9833 25.075 0.0
Ar 46.0233 28.1979 0.0
Ar 40.4825 29.414 0.0
Ar 43.0451 24.4418 0.0
Ar 41.896 29.1896 0.0
Ar 2.85212 23.893 0.0
Ar 5.76196 24.1622 0.0
Ar 49.6347 23.1623 0.0
Ar 1.39537 26.4606 0.0
Ar 46.7467 23.0164 0.0
Ar 43.0702 27.3873 0.0
Ar 2.33054 26.1393 0.0
Ar 46.9554 21.981 0.0
Ar 47.1723 32.1116 0.0
Ar 1.64444 11.5301 0.0
Ar 10.1198 28.7703 0.0
Ar 11.6799 19.4492 0.0
Ar 8.90774 21.551 0.0
Ar 10.5864 23.4663 0.0
Ar 11.0237 14.5266 0.0
Ar 10.5445 25.0817 0.0
Ar 12.8214 19.7125 0.0
Ar 20.1052 28.4728 0.0
Ar 21.4689 28.7889 0.0
Ar 24.1362 22.3339 0.0
Ar 22.4576 23.7732 0.0
Ar 23.5633 31.1107 0.0
Ar 28.2009 25.6895 0.0
Ar 33.7225 20.5834 0.0
Ar 27.9436 33.6313 0.0
Ar 30.3616 27.0077 0.0
Ar 22.1104 30.8804 0.0
Ar 36.8096 35.5431 0.0
Ar 38.6712 43.206 0.0
Ar 28.8704 29.0599 0.0
Ar 32.0178 27.9948 0.0
Ar 30.9309 31.9103 0.0
Ar 33.413 17.6005 0.0
Ar 33.5155 22.7615 0.0
Ar 38.3781 29.9867 0.0
Ar 35.2286 7.32405 0.0
Ar 33.378 23.7523 0.0
Ar 37.4839 15.8305 0.0
Ar 37.7923 34.5335 0.0
Ar 42.9495 31.1591 0.0
Ar 39.7292 31.6677 0.0
Ar 34.9803 26.699 0.0
Ar 41.3139 21.3961 0.0
Ar 3.03864 28.2003 0.0
Ar 39.4833 19.8187 0.0
Ar 1.00332 22.3811 0.0
Ar 9.07341 30.611 0.0
Ar 44.8524 31.3487 0.0
Ar 3.38011 21.3448 0.0
Ar 5.84814 22.3802 0.0
Ar 7.40917 24.8548 0.0
Ar 4.60334 22.2519 0.0
Ar 6.30113 19.7525 0.0
Ar 16.9413 19.0569 0.0
Ar 6.70073 27.7442 0.0
Ar 10.8721 21.1978 0.0
Ar 10.1782 25.9556 0.0
Ar 9.60255 23.9998 0.0
Ar 20.8558 20.2215 0.0
Ar 24.3145 21.2012 0.0
Ar 19.9971 27.3342 0.0
Ar 24.7501 24.621 0.0
Ar 27.6987 18.1536 0.0
Ar 20.2686 22.275 0.0
Ar 31.8025 25.3519 0.0
Ar 31.9875 23.5094 0.0
Ar 26.5845 29.6657 0.0
Ar 27.6633 32.0898 0.0
Ar 30.697 28.6641 0.0
Ar 36.9205 38.9853 0.0
Ar 29.7399 25.7334 0.0
Ar 33.3514 28.9039 0.0
Ar 31.5741 36.2539 0.0
Ar 34.3258 16.9426 0.0
Ar 32.4026 32.318 0.0
Ar 34.9186 36.7674 0.0
Ar 46.0623 32.8654 0.0
Ar 40.1904 34.1145 0.0
Ar 38.9787 10.8281 0.0
Ar 33.4002 30.0575 0.0
Ar 48.0497 12.8042 0.0
Ar 39.5519 30.3068 0.0
Ar 29.7232 10.6045 0.0
Ar 45.9944 31.65 0.0
Ar 42.7961 22.7638 0.0
Ar 48.4544 20.4815 0.0
Ar 43.4971 23.4443 0.0
Ar 49.9545 22.1262 0.0
Ar 48.0278 36.6554 0.0
Ar 47.3799 35.5436 0.0
Ar 1.24694 25.2318 0.0
Ar 5.9018 28.3342 0.0
Ar 48.2095 27.7342 0.0
Ar 2.08156 27.6596 0.0
Ar 5.4042 26.0509 0.0
Ar 1.95549 23.1249 0.0
Ar 15.8125 29.1778 0.0
Ar 8.77227 18.859 0.0
Ar 9.9126 20.9255 0.0
Ar 11.6746 23.4081 0.0
Ar 25.3822 17.5452 0.0
Ar 14.0466 19.4203 0.0
Ar 20.388 18.9428 0.0
Ar 18.7743 30.1217 0.0
Ar 24.2197 28.9647 0.0
Ar 20.667 21.2687 0.0
Ar 29.3108 24.4512 0.0
Ar 19.23 22.7971 0.0
Ar 32.8962 40.3298 0.0
Ar 36.6686 34.4502 0.0
Ar 48.2507 32.8526 0.0
Ar 28.397 27.6415 0.0
Ar 35.4342 38.8875 0.0
Ar 32.3286 29.0943 0.0
Ar 40.9404 41.3262 0.0
Ar 37.5663 41.3447 0.0
Ar 37.1177 40.1028 0.0
Ar 35.3664 23.6796 0.0
Ar 39.0996 34.3373 0.0
Ar 35.8158 31.713 0.0
Ar 37.581 16.9694 0.0
Ar 39.1077 15.0136 0.0
Ar 42.341 20.5355 0.0
Ar 44.9988 28.0862 0.0
Ar 38.0014 22.107 0.0
Ar 39.7841 25.3026 0.0
Ar 47.5369 37.8189 0.0
Ar 2.67193 38.0951 0.0
Ar 43.6809 34.2396 0.0
Ar 0.461498 27.1485 0.0
Ar 7.99005 25.8577 0.0
Ar 38.6497 31.642 0.0
Ar 4.49654 25.2448 0.0
Ar 1.28946 30.9347 0.0
Ar 7.79642 20.2001 0.0
Ar 44.8234 30.1155 0.0
Ar 11.2126 28.7917 0.0
Ar 11.2795 26.5621 0.0
Ar 0.0182738 30.577 0.0
Ar 10.5601 19.0517 0.0
Ar 12.3477 26.0613 0.0
Ar 16.3199 17.3918 0.0
Ar 13.0166 23.0641 0.0
Ar 11.5471 25.2648 0.0
Ar 24.6323 31.4064 0.0
Ar 18.6741 25.8353 0.0
Ar 22.9939 26.5395 0.0
Ar 24.5633 25.8313 0.0
Ar 21.5201 24.5384 0.0
Ar 26.9318 33.8144 0.0
Ar 20.5558 24.3109 0.0
Ar 25.1566 28.5226 0.0
Ar 38.3903 42.2804 0.0
Ar 26.624 42.0501 0.0
Ar 38.9232 38.2455 0.0
Ar 31.9098 37.2894 0.0
Ar 35.2853 35.1482 0.0
Ar 32.7849 36.0818 0.0
Ar 36.7869 31.1249 0.0
Ar 30.4561 33.7684 0.0
Ar 30.3981 14.8613 0.0
Ar 41.0926 23.8898 0.0
Ar 38.2515 33.5137 0.0
Ar 44.2406 24.2013 0.0
Ar 28.2271 24.2424 0.0
Ar 49.5183 24.1915 0.0
Ar 39.8531 23.9165 0.0
Ar 35.2567 28.6249 0.0
Ar 0.567456 21.2147 0.0
Ar 44.261 29.2624 0.0
Ar 42.6357 32.1582 0.0
Ar 48.4127 35.5412 0.0
Ar 49.1703 34.5611 0.0
Ar 1.61516 24.156 0.0
Ar 6.89098 25.9337 0.0
Ar 3.83511 27.4885 0.0
Ar 9.23208 31.6864 0.0
Ar 8.4128 24.3306 0.0
Ar 12.731 28.9324 0.0
Ar 8.96288 27.3019 0.0
Ar 8.06744 32.1622 0.0
Ar 14.516 28.0949 0.0
Ar 10.2505 18.0314 0.0
Ar 18.1611 21.5755 0.0
Ar 22.2478 33.8302 0.0
Ar 13.7375 25.44 0.0
Ar 25.2227 32.7234 0.0
Ar 26.2427 33.0968 0.0
Ar 27.9571 26.6867 0.0
Ar 15.749 22.3655 0.0
Ar 25.8634 23.581 0.0
Ar 31.5897 20.4059 0.0
Ar 19.7178 25.4103 0.0
Ar 24.697 33.7295 0.0
Ar 35.1354 30.9191 0.0
Ar 41.637 40.4685 0.0
Ar 39.7974 41.7726 0.0
Ar 39.0628 39.4721 0.0
Ar 38.3965 40.3001 0.0
Ar 26.2229 43.022 0.0
Ar 34.4309 27.5733 0.0
Ar 31.0087 34.6136 0.0
Ar 35.9425 22.8122 0.0
Ar 49.0532 36.3466 0.0
Ar 31.4519 32.7564 0.0
Ar 39.4061 32.6956 0.0
Ar 37.9358 32.3881 0.0
Ar 35.6794 27.5345 0.0
Ar 44.7819 32.718 0.0
Ar 40.6847 27.0554 0.0
Ar 0.0459882 34.0926 0.0
Ar 46.7525 36.9255 0.0
Ar 45.2532 39.6556 0.0
Ar 43.5218 39.1024 0.0
Ar 48.3071 31.7529 0.0
Ar 1.00488 35.1061 0.0
Ar 40.4615 30.6093 0.0
Ar 5.73637 31.4705 0.0
Ar 5.92235 29.5656 0.0
Ar 12.4402 24.7452 0.0
Ar 6.69859 31.1129 0.0
Ar 6.4979 20.8494 0.0
Ar 5.37352 27.2524 0.0
Ar 14.0157 16.9078 0.0
Ar 10.0913 14.0925 0.0
Ar 13.5209 24.4194 0.0
Ar 14.7738 24.7159 0.0
Ar 20.9279 29.598 0.0
Ar 19.3796 21.4633 0.0
Ar 27.1011 25.7471 0.0
Ar 18.4278 24.7221 0.0
Ar 23.371 29.9572 0.0
Ar 20.7711 33.8944 0.0
Ar 23.564 33.5541 0.0
Ar 23.5252 34.6029 0.0
Ar 30.6276 39.4387 0.0
Ar 36.1242 30.2624 0.0
Ar 29.931 30.9695 0.0
Ar 23.1067 38.6461 0.0
Ar 37.9732 39.101 0.0
Ar 15.8067 39.2067 0.0
Ar 39.1089 29.2357 0.0
Ar 31.6796 44.0421 0.0
Ar 35.1249 29.8478 0.0
Ar 34.0884 30.9021 0.0
Ar 40.8226 16.1771 0.0
Ar 40.2476 22.923 0.0
Ar 42.3715 18.1437 0.0
Ar 36.3466 28.6107 0.0
Ar 39.196 36.435 0.0
Ar 40.9576 37.0125 0.0
Ar 41.6986 30.8059 0.0
Ar 0.163073 39.0211 0.0
Ar 42.6878 33.2604 0.0
Ar 48.0522 30.4469 0.0
Ar 37.0022 33.3129 0.0
Ar 3.59046 36.2679 0.0
Ar 49.9513 35.3345 0.0
Ar 0.632086 32.9592 0.0
Ar 13.6361 30.4578 0.0
Ar 3.13905 22.3605 0.0
Ar 12.3736 27.8046 0.0
Ar 10.6323 33.9708 0.0
Ar 14.4723 34.9588 0.0
Ar 10.6294 20.2049 0.0
Ar 12.0718 29.7632 0.0
Ar 19.103 18.6646 0.0
Ar 12.4852 21.4823 0.0
Ar 17.1109 21.7297 0.0
Ar 13.4689 27.9011 0.0
Ar 23.7841 32.17 0.0
Ar 14.0237 32.3474 0.0
Ar 21.0849 30.6177 0.0
Ar 30.353 29.9093 0.0
Ar 20.5321 26.3976 0.0
Ar 25.4615 36.9448 0.0
Ar 31.839 30.9908 0.0
Ar 26.0392 35.0521 0.0
Ar 35.7986 32.9968 0.0
Ar 29.713 35.1932 0.0
Ar 33.6811 35.4846 0.0
Ar 29.1104 34.237 0.0
Ar 39.9056 37.4866 0.0
Ar 30.0434 41.0146 0.0
Ar 28.9184 33.0149 0.0
Ar 27.5925 46.0698 0.0
Ar 42.3054 34.8321 0.0
Ar 26.5408 38.8011 0.0
Ar 38.7968 23.0314 0.0
Ar 33.5487 32.4458 0.0
Ar 40.0037 35.2453 0.0
Ar 36.1815 25.8628 0.0
Ar 41.0645 28.1109 0.0
Ar 41.2757 35.8541 0.0
Ar 33.4171 33.6303 0.0
Ar 1.66153 37.4299 0.0
Ar 47.4932 39.6985 0.0
Ar 44.6751 33.8826 0.0
Ar 1.65611 33.3193 0.0
Ar 43.8343 36.2384 0.0
Ar 7.74979 30.6541 0.0
Ar 42.5926 30.1386 0.0
Ar 11.844 35.2472 0.0
Ar 10.0993 33.014 0.0
Ar 15.9558 36.8189 0.0
Ar 49.2494 27.3422 0.0
Ar 9.35167 29.5767 0.0
Ar 13.8127 29.2544 0.0
Ar 8.12132 16.4176 0.0
Ar 21.145 36.3953 0.0
Ar 24.1853 17.4327 0.0
Ar 14.8223 25.7839 0.0
Ar 15.9028 27.9266 0.0
Ar 9.11938 28.4793 0.0
Ar 12.0548 46.0996 0.0
Ar 15.2852 26.6209 0.0
Ar 17.6689 27.2229 0.0
Ar 19.4962 24.1779 0.0
Ar 21.1742 22.8656 0.0
Ar 29.9713 37.9173 0.0
Ar 25.3493 29.7146 0.0
Ar 18.1239 22.5942 0.0
Ar 27.2549 43.0986 0.0
Ar 28.0604 40.4609 0.0
Ar 31.3304 38.6206 0.0
Ar 28.6695 47.0935 0.0
Ar 24.8498 43.8712 0.0
Ar 35.1998 34.0514 0.0
Ar 41.6516 33.8131 0.0
Ar 43.7149 32.1711 0.0
Ar 48.1178 33.9426 0.0
Ar 46.8726 29.824 0.0
Ar 49.0538 33.4692 0.0
Ar 45.4494 37.6932 0.0
Ar 40.5736 33.1852 0.0
Ar 43.6957 33.1707 0.0
Ar 42.7453 36.4441 0.0
Ar 4.02485 26.4176 0.0
Ar 3.49797 39.7007 0.0
Ar 1.2836 28.6447 0.0
Ar 45.3097 29.1566 0.0
Ar 49.6723 26.2915 0.0
Ar 45.0814 35.1817 0.0
Ar 47.2446 30.9692 0.0
Ar 10.7365 32.1254 0.0
Ar 7.78737 28.0264 0.0
Ar 10.2726 27.2038 0.0
Ar 7.56352 21.4745 0.0
Ar 11.8428 20.5136 0.0
Ar 3.79836 28.8757 0.0
Ar 22.3211 19.4017 0.0
Ar 18.1265 20.5156 0.0
Ar 17.4914 23.7118 0.0
Ar 13.9169 39.7164 0.0
Ar 21.7618 25.9948 0.0
Ar 13.3824 35.0964 0.0
Ar 8.92888 38.4517 0.0
Ar 17.1463 34.8769 0.0
Ar 27.3567 28.6838 0.0
Ar 24.9133 35.4711 0.0
Ar 26.8231 27.7894 0.0
Ar 17.0373 39.6262 0.0
Ar 29.4617 31.9975 0.0
Ar 38.1555 36.0303 0.0
Ar 25.1783 26.6543 0.0
Ar 27.1889 30.9148 0.0
Ar 27.5136 36.1002 0.0
Ar 26.5966 32.0004 0.0
Ar 39.278 46.1219 0.0
Ar 0.371643 41.7343 0.0
Ar 45.3835 38.6721 0.0
Ar 29.9184 45.0333 0.0
Ar 47.8089 42.181 0.0
Ar 38.9122 35.3421 0.0
Ar 32.9102 38.7758 0.0
Ar 41.6535 32.7939 0.0
Ar 47.2034 33.2496 0.0
Ar 1.89428 34.2786 0.0
Ar 42.0373 37.2017 0.0
Ar 0.340586 31.5676 0.0
Ar 46.1054 34.4314 0.0
Ar 2.43635 35.6472 0.0
Ar 4.82136 28.1582 0.0
Ar 49.0906 29.9179 0.0
Ar 5.08742 32.3209 0.0
Ar 2.13597 30.1261 0.0
Ar 47.2082 34.3693 0.0
Ar 4.55272 29.761 0.0
Ar 13.715 33.4717 0.0
Ar 11.5113 33.0333 0.0
Ar 12.0855 31.8293 0.0
Ar 12.6971 32.7938 0.0
Ar 14.9854 33.2004 0.0
Ar 24.6777 20.0667 0.0
Ar 18.7316 27.2043 0.0
Ar 16.7877 25.1072 0.0
Ar 19.4946 32.3051 0.0
Ar 15.2934 23.8113 0.0
Ar 19.4453 26.5112 0.0
Ar 17.776 29.6607 0.0
Ar 16.9676 29.0068 0.0
Ar 31.8806 46.2798 0.0
Ar 26.5432 26.8387 0.0
Ar 27.5945 38.1519 0.0
Ar 28.5985 36.9028 0.0
Ar 28.9448 35.9235 0.0
Ar 20.2065 46.2001 0.0
Ar 32.9415 41.3795 0.0
Ar 34.6161 37.7823 0.0
Ar 18.4864 48.9988 0.0
Ar 34.8541 39.8421 0.0
Ar 33.226 37.6984 0.0
Ar 37.6582 38.0779 0.0
Ar 30.3856 36.2151 0.0
Ar 44.3662 40.3261 0.0
Ar 24.534 40.8603 0.0
Ar 40.0858 38.7909 0.0
Ar 46.4713 37.9478 0.0
Ar 48.5171 37.6432 0.0
Ar 47.3549 40.9094 0.0
Ar 34.8363 41.609 0.0
Ar 2.98516 33.5006 0.0
Ar 4.4868 37.6348 0.0
Ar 6.78348 30.1413 0.0
Ar 6.6098 38.2016 0.0
Ar 48.7109 25.0502 0.0
Ar 4.27961 31.4602 0.0
Ar 7.99841 29.4217 0.0
Ar 6.42703 39.2624 0.0
Ar 6.10944 33.0578 0.0
Ar 10.4888 30.0917 0.0
Ar 16.6684 31.9385 0.0
Ar 7.46369 26.8758 0.0
Ar 10.0149 35.0399 0.0
Ar 10.2385 38.8334 0.0
Ar 19.964 31.3705 0.0
Ar 17.1959 33.0674 0.0
Ar 14.6161 38.559 0.0
Ar 18.031 33.7821 0.0
Ar 24.1629 36.9132 0.0
Ar 15.8972 38.06 0.0
Ar 18.807 31.493 0.0
Ar 17.2879 26.185 0.0
Ar 25.8664 33.997 0.0
Ar 21.1537 37.8024 0.0
Ar 25.912 30.8831 0.0
Ar 22.6289 43.4412 0.0
Ar 19.7609 29.6594 0.0
Ar 17.5138 41.093 0.0
Ar 22.3876 42.2402 0.0
Ar 27.9301 44.8908 0.0
Ar 27.3232 37.1894 0.0
Ar 31.2921 42.761 0.0
Ar 28.789 38.1588 0.0
Ar 36.2423 44.3847 0.0
Ar 36.8783 32.2914 0.0
Ar 36.235 37.7049 0.0
Ar 48.4797 41.2896 0.0
Ar 45.2794 42.1655 0.0
Ar 46.1353 30.6609 0.0
Ar 37.2064 30.0803 0.0
Ar 38.8681 41.3516 0.0
Ar 49.5673 37.5439 0.0
Ar 8.28277 33.6961 0.0
Ar 5.05881 35.5879 0.0
Ar 1.28367 39.4526 0.0
Ar 6.89206 28.9365 0.0
Ar 5.67198 37.3272 0.0
Ar 43.136 37.6348 0.0
Ar 49.0763 38.7109 0.0
Ar 7.29897 33.4111 0.0
Ar 0.33455 36.4602 0.0
Ar 13.3676 41.1293 0.0
Ar 10.1982 37.0352 0.0
Ar 6.18407 35.2087 0.0
Ar 13.2446 31.6018 0.0
Ar 14.9562 43.0756 0.0
Ar 16.3333 26.1507 0.0
Ar 9.41696 35.9596 0.0
Ar 16.0515 33.6876 0.0
Ar 20.294 35.1069 0.0
Ar 14.1951 45.3123 0.0
Ar 28.2828 35.1273 0.0
Ar 28.5283 39.2551 0.0
Ar 27.5285 39.3457 0.0
Ar 22.0836 36.9102 0.0
Ar 27.6371 29.9463 0.0
Ar 17.0447 36.8578 0.0
Ar 26.4909 45.8513 0.0
Ar 34.2845 34.5164 0.0
Ar 29.7026 36.9142 0.0
Ar 23.7101 41.5827 0.0
Ar 28.4404 49.2174 0.0
Ar 25.4695 38.0894 0.0
Ar 25.6502 40.577 0.0
Ar 30.5709 44.0138 0.0
Ar 23.5919 40.2025 0.0
Ar 32.9601 46.5061 0.0
Ar 35.9389 40.67 0.0
Ar 45.3664 41.0892 0.0
Ar 35.8487 36.163 0.0
Ar 1.63966 38.4828 0.0
Ar 40.265 39.8724 0.0
Ar 47.8357 29.1217 0.0
Ar 48.9582 28.6033 0.0
Ar 40.6788 42.5073 0.0
Ar 49.3283 31.4869 0.0
Ar 1.17474 29.7992 0.0
Ar 49.6012 39.9935 0.0
Ar 44.6794 46.088 0.0
Ar 48.7745 42.6624 0.0
Ar 2.3773 44.5056 0.0
Ar 11.5916 34.1535 0.0
Ar 11.7465 22.3247 0.0
Ar 8.98731 32.6573 0.0
Ar 15.1173 31.9876 0.0
Ar 41.9845 41.6932 0.0
Ar 11.1905 30.9334 0.0
Ar 8.00887 45.214 0.0
Ar 15.6335 34.7621 0.0
Ar 14.2518 31.2384 0.0
Ar 11.3033 43.2965 0.0
Ar 13.2819 26.7355 0.0
Ar 8.86405 37.1721 0.0
Ar 13.1023 39.0108 0.0
Ar 23.2279 36.5228 0.0
Ar 18.2421 37.6065 0.0
Ar 21.3174 44.3311 0.0
Ar 26.3213 36.0431 0.0
Ar 27.1509 35.159 0.0
Ar 33.349 47.6369 0.0
Ar 25.3149 46.2724 0.0
Ar 18.0868 2.8178 0.0
Ar 27.1495 44.1155 0.0
Ar 23.9351 35.8248 0.0
Ar 21.574 43.1548 0.0
Ar 36.9228 36.7797 0.0
Ar 32.1589 47.2946 0.0
Ar 33.8335 40.7305 0.0
Ar 35.5168 45.2118 0.0
Ar 34.007 38.5987 0.0
Ar 39.4421 48.4382 0.0
Ar 36.1034 39.6327 0.0
Ar 46.2826 39.1508 0.0
Ar 36.6629 0.0556894 0.0
Ar 44.6387 42.9247 0.0
Ar 1.38887 36.3352 0.0
Ar 0.359096 28.2023 0.0
Ar 49.6941 32.4822 0.0
Ar 1.70877 40.3695 0.0
Ar 4.16606 33.1351 0.0
Ar 42.8206 45.9419 0.0
Ar 1.95039 32.2145 0.0
Ar 3.72808 42.5244 0.0
Ar 10.1914 40.0562 0.0
Ar 12.6996 44.8561 0.0
Ar 10.8528 35.7585 0.0
Ar 15.0484 30.3932 0.0
Ar 2.22543 45.7195 0.0
Ar 13.2218 46.9145 0.0
Ar 16.8938 20.2846 0.0
Ar 12.6195 30.779 0.0
Ar 16.4775 41.447 0.0
Ar 14.3355 41.9274 0.0
Ar 24.285 38.2243 0.0
Ar 19.0553 28.5805 0.0
Ar 18.0667 28.6739 0.0
Ar 13.8547 37.299 0.0
Ar 22.1798 35.5682 0.0
Ar 25.3156 39.1094 0.0
Ar 21.6522 40.6362 0.0
Ar 19.0682 38.9513 0.0
Ar 24.5738 42.195 0.0
Ar 19.9938 49.1378 0.0
Ar 24.3396 44.8532 0.0
Ar 30.8213 46.1013 0.0
Ar 25.8962 44.0741 0.0
Ar 32.8088 44.3224 0.0
Ar 18.8486 44.0713 0.0
Ar 35.3137 43.7774 0.0
Ar 25.3949 45.1527 0.0
Ar 31.6422 39.6918 0.0
Ar 46.3623 40.249 0.0
Ar 40.8895 46.41 0.0
Ar 39.6924 43.5181 0.0
Ar 46.3979 41.561 0.0
Ar 7.93887 39.0044 0.0
Ar 4.18955 34.2912 0.0
Ar 0.705039 40.4012 0.0
Ar 4.8067 38.8967 0.0
Ar 36.5928 45.6578 0.0
Ar 7.07971 37.1407 0.0
Ar 2.98565 32.1071 0.0
Ar 6.81725 42.8677 0.0
Ar 44.4067 44.0702 0.0
Ar 44.7331 0.889014 0.0
Ar 5.84027 46.631 0.0
Ar 5.53096 39.8062 0.0
Ar 4.65735 41.7331 0.0
Ar 8.51716 43.2781 0.0
Ar 7.14659 46.3576 0.0
Ar 12.5713 34.3855 0.0
Ar 5.24252 34.5522 0.0
Ar 12.241 41.1712 0.0
Ar 5.66519 45.6326 0.0
Ar 17.4991 46.0031 0.0
Ar 10.9041 37.9128 0.0
Ar 6.46142 34.109 0.0
Ar 21.4646 33.0442 0.0
Ar 21.9547 38.9089 0.0
Ar 16.6607 30.2369 0.0
Ar 16.0213 35.7754 0.0
Ar 19.8656 39.9534 0.0
Ar 16.368 40.472 0.0
Ar 28.9273 0.284979 0.0
Ar 31.005 0.639739 0.0
Ar 25.3956 48.6979 0.0
Ar 39.2518 0.311826 0.0
Ar 24.2597 46.011 0.0
Ar 30.2295 42.7282 0.0
Ar 15.8819 6.59044 0.0
Ar 40.351 45.4488 0.0
Ar 43.3543 35.3305 0.0
Ar 27.648 41.4849 0.0
Ar 36.1209 42.0303 0.0
Ar 21.4878 41.6703 0.0
Ar 29.4957 43.511 0.0
Ar 35.3128 46.3154 0.0
Ar 44.4627 37.4995 0.0
Ar 9.10376 49.3304 0.0
Ar 45.7869 43.371 0.0
Ar 41.596 6.56383 0.0
Ar 49.9052 42.7198 0.0
Ar 44.7485 2.05468 0.0
Ar 40.4461 48.5193 0.0
Ar 38.2816 45.4965 0.0
Ar 6.12138 36.32 0.0
Ar 7.08597 35.9166 0.0
Ar 1.66167 41.6559 0.0
Ar 10.2644 42.9722 0.0
Ar 5.94662 43.5523 0.0
Ar 8.77662 40.8729 0.0
Ar 17.6124 30.8028 0.0
Ar 5.74577 42.3263 0.0
Ar 10.4338 44.3871 0.0
Ar 14.3229 36.2023 0.0
Ar 15.7104 25.2301 0.0
Ar 12.8699 42.123 0.0
Ar 11.4446 36.9589 0.0
Ar 18.2738 32.5613 0.0
Ar 19.6659 33.7895 0.0
Ar 12.5368 37.2505 0.0
Ar 19.0373 35.0406 0.0
Ar 24.3653 47.1465 0.0
Ar 20.8418 0.131788 0.0
Ar 23.0881 47.8605 0.0
Ar 23.3719 45.2343 0.0
Ar 12.6647 43.5671 0.0
Ar 25.3846 47.5347 0.0
Ar 26.6017 46.8858 0.0
Ar 21.8389 47.353 0.0
Ar 36.3284 2.2606 0.0
Ar 28.7522 41.2351 0.0
Ar 37.2015 43.6756 0.0
Ar 33.0334 2.00746 0.0
Ar 42.2922 43.8634 0.0
Ar 32.4445 42.9307 0.0
Ar 33.8737 36.7879 0.0
Ar 2.98093 34.6865 0.0
Ar 43.3867 40.047 0.0
Ar 1.59187 43.7192 0.0
Ar 47.1928 45.9159 0.0
Ar 48.0983 44.5586 0.0
Ar 3.13307 46.2552 0.0
Ar 43.0548 41.4323 0.0
Ar 47.4407 47.017 0.0
Ar 0.977766 42.5753 0.0
Ar 7.4802 34.5936 0.0
Ar 8.88956 48.0248 0.0
Ar 9.05575 39.5982 0.0
Ar 5.27231 33.5698 0.0
Ar 3.35533 45.0007 0.0
Ar 13.2538 36.1916 0.0
Ar 9.77034 41.1476 0.0
Ar 9.4411 45.1426 0.0
Ar 15.3477 40.236 0.0
Ar 20.4432 41.9381 0.0
Ar 18.9932 36.6266 0.0
Ar 6.80129 40.686 0.0
Ar 11.7134 40.3111 0.0
Ar 16.8686 42.5193 0.0
Ar 14.9397 37.3569 0.0
Ar 17.7115 43.6621 0.0
Ar 19.9768 36.0342 0.0
Ar 15.7002 45.1752 0.0
Ar 22.1858 48.5711 0.0
Ar 19.9112 44.351 0.0
Ar 18.9996 46.1659 0.0
Ar 24.4363 48.1224 0.0
Ar 29.6001 47.5833 0.0
Ar 22.376 44.5061 0.0
Ar 30.766 37.2561 0.0
Ar 41.6601 3.61962 0.0
Ar 43.7125 1.86369 0.0
Ar 39.4218 44.9895 0.0
Ar 34.3208 44.378 0.0
Ar 42.4464 49.3459 0.0
Ar 43.8131 45.5662 0.0
Ar 33.7142 39.5801 0.0
Ar 44.4601 41.528 0.0
Ar 48.9595 43.7411 0.0
Ar 48.653 45.5012 0.0
Ar 48.4355 40.1927 0.0
Ar 46.5927 44.9434 0.0
Ar 4.4916 40.3172 0.0
Ar 47.7266 48.1002 0.0
Ar 43.8581 8.37668 0.0
Ar 2.5907 36.7498 0.0
Ar 3.80741 38.6482 0.0
Ar 42.0237 42.8185 0.0
Ar 10.1727 31.0876 0.0
Ar 4.18461 44.1224 0.0
Ar 46.9627 43.9187 0.0
Ar 5.31493 48.9924 0.0
Ar 7.94621 37.8455 0.0
Ar 6.87759 41.7537 0.0
Ar 3.08785 3.57724 0.0
Ar 4.07618 46.1037 0.0
Ar 9.35348 33.8946 0.0
Ar 6.58574 32.2007 0.0
Ar 5.71137 41.2397 0.0
Ar 8.58097 34.832 0.0
Ar 9.9332 0.248492 0.0
Ar 19.5766 41.1262 0.0
Ar 16.6432 43.7104 0.0
Ar 20.6373 38.8056 0.0
Ar 18.5472 42.9862 0.0
Ar 19.1538 42.0408 0.0
Ar 20.2925 37.1936 0.0
Ar 21.1519 39.6979 0.0
Ar 26.785 49.5555 0.0
Ar 33.6732 5.49434 0.0
Ar 33.5557 42.3749 0.0
Ar 28.637 45.7777 0.0
Ar 29.5982 46.3737 0.0
Ar 29.6268 38.8435 0.0
Ar 26.8563 40.2656 0.0
Ar 45.5979 48.6603 0.0
Ar 39.9386 46.9716 0.0
Ar 28.6175 42.2935 0.0
Ar 0.718167 37.9229 0.0
Ar 40.4407 44.3392 0.0
Ar 37.1849 42.3738 0.0
Ar 2.5782 42.991 0.0
Ar 43.3894 43.8372 0.0
Ar 47.9144 43.4603 0.0
Ar 0.727084 1.92689 0.0
Ar 3.87639 4.41624 0.0
Ar 2.72887 40.7775 0.0
Ar 49.6161 41.0564 0.0
Ar 45.2929 46.8838 0.0
Ar 7.57251 1.2645 0.0
Ar 5.77641 0.199763 0.0
Ar 5.49118 47.6843 0.0
Ar 10.0783 45.9369 0.0
Ar 11.5202 42.2856 0.0
Ar 4.59696 2.13225 0.0
Ar 12.017 39.1506 0.0
Ar 8.429 36.2979 0.0
Ar 11.1833 48.018 0.0
Ar 10.8083 41.6001 0.0
Ar 11.953 38.1353 0.0
Ar 17.7798 47.8053 0.0
Ar 3.72386 41.1881 0.0
Ar 17.3866 48.7808 0.0
Ar 18.0129 35.594 0.0
Ar 8.75752 45.9739 0.0
Ar 14.8544 29.4007 0.0
Ar 19.7496 38.0772 0.0
Ar 18.2454 39.5654 0.0
Ar 24.0437 39.2708 0.0
Ar 14.3329 4.753 0.0
Ar 25.6562 41.8128 0.0
Ar 19.4345 1.612 0.0
Ar 29.9599 0.428036 0.0
Ar 23.5608 44.031 0.0
Ar 34.4033 48.061 0.0
Ar 32.467 4.17951 0.0
Ar 31.4667 5.04528 0.0
Ar 32.1123 45.0686 0.0
Ar 37.4719 46.2737 0.0
Ar 47.8719 38.7943 0.0
Ar 41.7963 45.8434 0.0
Ar 38.4745 44.3119 0.0
Ar 32.0991 41.9466 0.0
Ar 46.0408 1.20734 0.0
Ar 1.39734 46.3341 0.0
Ar 43.5252 42.4292 0.0
Ar 36.5462 47.6073 0.0
Ar 43.0304 11.2777 0.0
Ar 38.8091 47.3148 0.0
Ar 49.6038 44.8503 0.0
Ar 5.80545 4.84842 0.0
Ar 2.45109 2.58118 0.0
Ar 48.9107 49.5345 0.0
Ar 10.7175 3.00572 0.0
Ar 6.9546 5.35913 0.0
Ar 1.63213 49.6597 0.0
Ar 4.57178 0.388031 0.0
Ar 4.90718 42.8213 0.0
Ar 48.774 48.1152 0.0
Ar 13.1338 48.9208 0.0
Ar 16.9995 44.8909 0.0
Ar 8.35171 0.519226 0.0
Ar 15.9049 31.2268 0.0
Ar 12.7526 39.9592 0.0
Ar 15.3036 41.2987 0.0
Ar 23.0161 49.7232 0.0
Ar 15.6396 43.929 0.0
Ar 17.9583 42.0988 0.0
Ar 20.5961 45.1265 0.0
Ar 14.5743 5.95466 0.0
Ar 13.8309 44.18 0.0
Ar 23.5086 42.6369 0.0
Ar 18.5174 5.64645 0.0
Ar 16.1499 1.84077 0.0
Ar 33.7255 43.4829 0.0
Ar 31.5616 48.6663 0.0
Ar 32.9056 0.877033 0.0
Ar 31.0389 44.974 0.0
Ar 33.2551 45.3454 0.0
Ar 37.4304 0.926185 0.0
Ar 41.2668 43.5278 0.0
Ar 34.422 45.4782 0.0
Ar 34.091 46.8281 0.0
Ar 2.38803 39.4001 0.0
Ar 46.006 47.6204 0.0
Ar 41.1335 39.1444 0.0
Ar 42.5568 44.8308 0.0
Ar 42.7177 0.393823 0.0
Ar 3.45482 2.29408 0.0
Ar 45.2629 5.11511 0.0
Ar 46.7388 48.4962 0.0
Ar 4.67964 36.5789 0.0
Ar 3.23539 30.2986 0.0
Ar 0.722315 47.6942 0.0
Ar 0.433262 45.6638 0.0
Ar 3.83776 10.4797 0.0
Ar 2.10041 3.74703 0.0
Ar 1.32704 44.7889 0.0
Ar 9.91808 48.4316 0.0
Ar 7.33677 43.792 0.0
Ar 7.03154 2.31389 0.0
Ar 8.24061 2.21619 0.0
Ar 3.8899 1.28296 0.0
Ar 19.235 3.60865 0.0
Ar 11.7115 44.4916 0.0
Ar 13.7887 48.0137 0.0
Ar 6.69914 0.665264 0.0
Ar 21.4978 34.7515 0.0
Ar 21.4784 49.3463 0.0
Ar 19.7063 42.9377 0.0
Ar 29.0565 7.52692 0.0
Ar 22.6082 39.7209 0.0
Ar 14.7058 0.279482 0.0
Ar 16.819 7.39769 0.0
Ar 26.1526 1.0101 0.0
Ar 23.7105 48.9073 0.0
Ar 33.6623 48.9013 0.0
Ar 27.756 0.0162813 0.0
Ar 28.9211 44.4942 0.0
Ar 32.881 6.33634 0.0
Ar 45.062 49.9159 0.0
Ar 41.3598 44.9047 0.0
Ar 38.5378 1.17474 0.0
Ar 36.7159 49.0381 0.0
Ar 38.6249 2.15763 0.0
Ar 45.7467 45.6746 0.0
Ar 44.3731 47.5942 0.0
Ar 39.5069 5.41479 0.0
Ar 36.0459 5.24851 0.0
Ar 42.3047 47.8966 0.0
Ar 40.3776 0.459896 0.0
Ar 0.21606 43.8159 0.0
Ar 38.112 6.62097 0.0
Ar 2.92301 47.9794 0.0
Ar 49.9656 49.5489 0.0
Ar 49.6298 2.14785 0.0
Ar 2.77753 7.13618 0.0
Ar 2.78676 1.1745 0.0
Ar 2.89675 0.133757 0.0
Ar 5.41424 9.10891 0.0
Ar 48.4279 46.7763 0.0
Ar 4.17522 48.4841 0.0
Ar 15.6717 42.4481 0.0
Ar 13.1496 45.808 0.0
Ar 16.0272 0.592208 0.0
Ar 7.31481 49.7224 0.0
Ar 11.0008 46.7483 0.0
Ar 20.6222 40.9034 0.0
Ar 14.2968 46.814 0.0
Ar 14.6039 3.33398 0.0
Ar 19.7909 47.4882 0.0
Ar 10.7935 10.8545 0.0
Ar 20.8469 2.08479 0.0
Ar 20.8641 48.2237 0.0
Ar 30.5085 49.4359 0.0
Ar 30.4578 2.71095 0.0
Ar 17.6588 3.83441 0.0
Ar 35.4707 48.3647 0.0
Ar 36.1495 43.0542 0.0
Ar 39.729 2.5612 0.0
Ar 32.5123 5.16525 0.0
